/batch
/config,noeldb,1     ! force off writing results to database
*get,_wallstrt,active,,time,wall
! ANSYS input file written by Workbench version 2026 R1
! File used for geometry attach: C:\Users\Om\Documents\Automated Parametric Wing Rib Optimization (Python + CADFEA)\rib_model.step
/title,fea_macro_v2--Static Structural (A5)
! ****** Begin Custom Load Command Snippet ******
/COM, ACT Extensions:
/COM,     LSDYNA, 2026.1
/COM,     5f463412-bd3e-484b-87e7-cbc0a665e474, wbex
/COM,     ANSYSMotion, 2026.1
/COM,     20180725-3f81-49eb-9f31-41364844c769, wbex
! ****** End   Custom Load Command Snippet ******
*DIM,_wb_ProjectScratch_dir,string,248
_wb_ProjectScratch_dir(1) = 'C:\Users\Om\Documents\Automated Parametric Wing Rib Optimization (Python + CADFEA)\_ProjectScratch\Scr68FF\'
*DIM,_wb_SolverFiles_dir,string,248
_wb_SolverFiles_dir(1) = 'C:\Users\Om\Documents\Automated Parametric Wing Rib Optimization (Python + CADFEA)\fea_macro_v2_files\dp0\SYS\MECH\'
*DIM,_wb_userfiles_dir,string,248
_wb_userfiles_dir(1) = 'C:\Users\Om\Documents\Automated Parametric Wing Rib Optimization (Python + CADFEA)\fea_macro_v2_files\user_files\'
/com,--- Data in consistent NMM units. See Solving Units in the help system for more information.
/units,MPA
/nopr
/wb,file,start              !  signify a WB generated input file
/prep7
! Turn off shape checking because checks already performed inside WB mesher.
! See help system for more information.
SHPP,OFF,,NOWARN
/nolist
etcon,set             ! allow ANSYS to choose best KEYOP's for 180x elements, resets any applicable keyopt to MAPDL defaults
/com,*********** Send User Defined Coordinate System(s) ***********
local,12,0,0.,0.,0.,-3.50835464926744e-015,0.,0.
csys,0
/com,*********** Nodes for the whole assembly ***********
nblock,3,,63567
(1i9,3e20.9e3)
        1     0.000000000E+00     9.164200350E+02     1.708162982E+01
        2     0.000000000E+00     9.248940104E+02     1.222021248E+01
        3     0.000000000E+00     9.375460469E+02     2.560117266E+01
        4     0.000000000E+00     9.339651255E+02     3.432501836E+01
        5     0.000000000E+00     9.253952892E+02     3.676052082E+01
        6     0.000000000E+00     9.163487068E+02     3.443846978E+01
        7     0.000000000E+00     9.095935980E+02     2.188327688E+01
        8     0.000000000E+00     4.914946962E+02     1.383729082E+01
        9     0.000000000E+00     4.973102028E+02     8.111389854E+00
       10     0.000000000E+00     5.041872129E+02     5.324078476E+00
       11     0.000000000E+00     5.120621100E+02     5.341788861E+00
       12     0.000000000E+00     5.198043279E+02     8.736673098E+00
       13     0.000000000E+00     5.248371774E+02     1.392261542E+01
       14     0.000000000E+00     5.284484382E+02     2.230030849E+01
       15     0.000000000E+00     5.279143822E+02     3.054099054E+01
       16     0.000000000E+00     5.178813041E+02     4.310381268E+01
       17     0.000000000E+00     4.964052075E+02     4.406589090E+01
       18     0.000000000E+00     4.893273641E+02     3.478540122E+01
       19     0.000000000E+00     4.877085231E+02     2.949091035E+01
       20     0.000000000E+00     7.164261158E+02     8.890450418E+00
! ... 57770 like lines cut
/wb,elem,start            !  set before creation of elements
/com,*********** Elements for Body 1 '2026-07-28-17-55-21-380|Body1' ***********
et,1,186
keyo,1,2,1          ! set full integration on SOLID186
MAT,1 $ TYPE,1 $ REAL,1 $ SECNUM,1 $ ESYS,0    ! ELEMNODES = 20
eblock,21,COMPACT,,8035
(21i9)
        1     1177     3412     3393     3411    14106    11871    11890    11872    21995    29320    29319    21994    50483    50481    50485    50486    22000    29376    29321    29374
        2     1177     3411     3427     3448    14106    11872    11856    11835    21994    29373    29416    21997    50486    50449    50397    50399    22000    29374    29417    29472
        3     1177     3448     3488     3465    14106    11835    11795    11818    21997    29471    29513    21999    50399    50293    50292    50356    22000    29472    29568    29514
        4     6485     7613     7612     6549     8798     7670     7671     8734    37348    39947    37524    37347    40086    40084    40088    42907    37350    39950    39948    37525
        5     6549     7612     7610     7611     8734     7671     7673     7672    37524    39944    39943    37523    40088    40087    40090    40092    37525    39948    39945    39946
        6     6485     7640     7641     7613     8798     7643     7642     7670    37349    40001    39949    37348    40008    40004    40005    40086    37350    40002    40003    39950
        7     7586     7587     7613     7641     7697     7696     7670     7642    39891    39894    39949    39892    40154    40085    40005    40006    39893    39895    39950    40003
        8     1555     6456     7586     7641    13728     8827     7697     7642    23693    37269    39892    23695    43118    40157    40006    40007    23696    37270    39893    40003
        9     1555     7641     7640     6472    13728     7642     7643     8811    23695    40001    37313    23694    40007    40004    40009    43082    23696    40003    40002    37314
       10     1556     6472     7640     6485    13727     8811     7643     8798    23697    37313    37349    23699    43081    40009    40008    43052    23701    37314    40002    37350
       11      246     4730     4827     7639    15037    10553    10456     7644    17786    32832    33085    17789    47323    47091    40011    40012    17790    32833    33086    40000
       12      246     7639     4966     5052    15037     7644    10317    10231    17789    33461    33460    17788    40012    40010    46579    46580    17790    40000    33462    33704
       13       24      245     4966     7639    15259    15038    10317     7644    16803    17783    33461    16804    55537    46769    40010    40013    16805    17785    33462    40000
       14        2       24     7639     4827    15281    15259     7644    10456    16693    16804    33085    16695    55668    40013    40011    47093    16696    16805    40000    33086
       15     1275     7638     3192     3185    14008     7645    12091    12098    22448    28784    28766    22447    40017    40016    50991    51011    22449    39999    28785    28767
       16     3192     7638     3492     3453    12091     7645    11791    11830    28784    29577    29484    28783    40016    40015    50281    50386    28785    39999    29578    29486
       17     1363     3492     7638     3534    13920    11791     7645    11749    22844    29577    29690    22845    50283    40015    40014    50185    22847    29578    39999    29691
       18     1275     1287     3534     7638    14008    13996    11749     7645    22445    22498    29690    22448    55011    50187    40014    40017    22449    22500    29691    39999
       19     7352     7353     7354     7357     7931     7930     7929     7926    39565    39568    39572    39566    40930    40928    40917    40918    39567    39570    39573    39578
       20      570     7357      729     7358    14713     7926    14554     7925    19274    19986    19987    19275    40920    40919    40914    40915    19276    39578    19990    39580
! ... 8016 like lines cut
secnum,1    ! reset the section ID to default
! Material Id = {8E34958D-4153-4CFD-BB2D-9195B4A8850D}
/wb,elem,end               !  done creating elements
toffst,273.15,      ! Temperature offset from absolute zero
/com,*********** Set Reference Temperature ***********
tref,22.
/wb,mat,start              !  starting to send materials
/com,*********** Send Materials ***********
Temperature = 'TEMP' ! Temperature
MP,DENS,1,2.77e-09,	! tonne mm^-3
MP,ALPX,1,2.3e-05,	! C^-1
MP,C,1,875000000,	! mm^2 s^-2 C^-1
MPTEMP,,,,,,,,
MPTEMP,1,-100
MPTEMP,2,0
MPTEMP,3,100
MPTEMP,4,200
MPDATA,KXX,1, ,114,144,165,175,	! tonne mm s^-3 C^-1
MPTEMP,,,,,,,,
MPTEMP,,,,,,,,
MPTEMP,1,0
MPTEMP,2,20
MPTEMP,3,100
MPDATA,RSVX,1, ,2.43e-05,2.67e-05,3.63e-05,	! ohm mm
MPTEMP,,,,,,,,
MP,EX,1,71000,	! tonne s^-2 mm^-1
MP,NUXY,1,0.33,
MP,MURX,1,1,
MP,UVID,1,e275a460-0a47-4669-b537-fea4cc185561
MP,UMID,1,35d48138-be0c-4a97-839b-6fba81b9f834

/wb,mat,end                !  done sending materials
!************************* Model Summary ********************
! 2026-07-28-17-55-21-380|Body1,	Aluminum Alloy,	matid,	1
!************************* End Model Summary ********************
! get the diagonal of the bounding box. Needed later for other things
*get,_xmin,node,,mnloc,x
*get,_ymin,node,,mnloc,y
*get,_zmin,node,,mnloc,z
*get,_xmax,node,,mxloc,x
*get,_ymax,node,,mxloc,y
*get,_zmax,node,,mxloc,z
_ASMDIAG=(_xmax-_xmin)*(_xmax-_xmin)+(_ymax-_ymin)*(_ymax-_ymin)+(_zmax-_zmin)*(_zmax-_zmin)
_ASMDIAG=SQRT(_ASMDIAG)
/wb,contact,start          !  starting to send contact
/wb,contact,end            !  done creating contacts
/com,*********** Send Named Selection as Node Component ***********
CMBLOCK,SELECTION,NODE,       16
(8i10)
     15284    -15422     15908     15914     16054     16079     16547    -16685
     55684    -55962     56934     56947     57157     57182     57652    -57789
/com,*********** Send Named Selection as Node Component ***********
CMBLOCK,FIXED_SUPPORT_FACES,NODE,       16
(8i10)
     15865    -15940     16029    -16104     56848    -56997     57130    -57141
     57143    -57156     57158    -57181     57183    -57201     57203    -57207
/com,*********** Send Named Selection as Element Component ***********
esel,s,type,,1
cm,WING_RIB_BODY,elem
esel,all
/golist
/wb,load,start             !  starting to send loads
/com,*********** Fixed Supports ***********
CMBLOCK,_FIXEDSU,NODE,       16
(8i10)
     15865    -15940     16029    -16104     56848    -56997     57130    -57141
     57143    -57156     57158    -57181     57183    -57201     57203    -57207
cmsel,s,_FIXEDSU
d,all,all
nsel,all
/com,*********** Define Pressure Vector Using Surface Effect Elements ***********
local,13,0,0.,0.,0.,0.,0.,0.
csys,0
et,2,154
MAT,2 $ TYPE,2 $ REAL,2 $ SECNUM,2 $ ESYS,13    ! ELEMNODES = 8
eblock,21,COMPACT,,140
(21i9)
    24808    15908    15284    16685    16079    55685    55686    57182    56934
    24809    15284    15285    16684    16685    55684    55688    57789    55686
    24810    15285    15286    16683    16684    55687    55690    57788    55688
    24811    15286    15287    16682    16683    55689    55692    57787    55690
    24812    15287    15288    16681    16682    55691    55694    57786    55692
    24813    15288    15289    16680    16681    55693    55696    57785    55694
    24814    15289    15290    16679    16680    55695    55698    57784    55696
    24815    15290    15291    16678    16679    55697    55700    57783    55698
    24816    15291    15292    16677    16678    55699    55702    57782    55700
    24817    15292    15293    16676    16677    55701    55704    57781    55702
    24818    15293    15294    16675    16676    55703    55706    57780    55704
    24819    15294    15295    16674    16675    55705    55708    57779    55706
    24820    15295    15296    16673    16674    55707    55710    57778    55708
    24821    15296    15297    16672    16673    55709    55712    57777    55710
    24822    15297    15298    16671    16672    55711    55714    57776    55712
    24823    15298    15299    16670    16671    55713    55716    57775    55714
    24824    15299    15300    16669    16670    55715    55718    57774    55716
    24825    15300    15301    16668    16669    55717    55720    57773    55718
    24826    15301    15302    16667    16668    55719    55722    57772    55720
    24827    15302    15303    16666    16667    55721    55724    57771    55722
! ... 121 like lines cut
secnum,1    ! reset the section ID to default
esel,s,type,,2
keyop,2,2,1         ! Apply load in local coordinate system
keyop,2,7,0         ! Use deformed area for application of load
esel,all
et,3,14   ! spring element type
/com,*********** Construct Weak Springs, Prototype 1 ***********
*set,_delta,73.5349630920689
type,3
mat,4
real,4
r,4,2.82565780485835e-004
nsel,all
*get,_nspr,ndmx
_nspr=_nspr+1
esel,s,type,,1
nsle,s,active
*get,_minx,node,0,mnloc,x
*get,_miny,node,0,mnloc,y
*get,_minz,node,0,mnloc,z
*get,_maxx,node,0,mxloc,x
*get,_maxy,node,0,mxloc,y
*get,_maxz,node,0,mxloc,z
*dim,_ntets,arra,8
_ntets(1) = NODE(_minx,_miny,_minz)
_ntets(2) = NODE(_minx,_miny,_maxz)
_ntets(3) = NODE(_minx,_maxy,_minz)
_ntets(4) = NODE(_minx,_maxy,_maxz)
_ntets(5) = NODE(_maxx,_miny,_minz)
_ntets(6) = NODE(_maxx,_miny,_maxz)
_ntets(7) = NODE(_maxx,_maxy,_minz)
_ntets(8) = NODE(_maxx,_maxy,_maxz)
*do,_i,1,8
  n,_nspr,nx(_ntets(_i))+_delta,ny(_ntets(_i)),nz(_ntets(_i))
  e,_ntets(_i),_nspr
  d,_nspr,all
  _nspr=_nspr+1
  n,_nspr,nx(_ntets(_i)),ny(_ntets(_i))+_delta,nz(_ntets(_i))
  e,_ntets(_i),_nspr
  d,_nspr,all
  _nspr=_nspr+1
  n,_nspr,nx(_ntets(_i)),ny(_ntets(_i)),nz(_ntets(_i))+_delta
  e,_ntets(_i),_nspr
  d,_nspr,all
  _nspr=_nspr+1
*enddo
*set,_ntets
nsel,all
esel,all
/gst,on,on
fini
*get,_numnode,node,0,count
*get,_numelem,elem,0,count
*get, _MAXELEMNUM, elem, 0, NUM, MAX
*get, _MAXNODENUM, node, 0, NUM, MAX
*get, _MAXELEMTYPE, etyp, 0, NUM, MAX
*get, _MAXREALCONST, rcon, 0, NUM, MAX
/go
/wb,load,end               !  done creating loads
/com,--- Number of total nodes = %_numnode%
/com,--- Number of contact elements = 140
/com,--- Number of spring elements = 24
/com,--- Number of bearing elements = 0
/com,--- Number of solid elements = 8035
/com,--- Number of condensed parts = 0
/com,--- Number of total elements = %_numelem%
*get,_wallbsol,active,,time,wall
/com,****************************************************************************
/com,*************************    SOLUTION       ********************************
/com,****************************************************************************
/solu
antype,0                   ! static analysis
_thickRatio=  0     ! Ratio of thick parts in the model
eqsl,sparse,,,,,1
cntr,print,1               ! print out contact info and also make no initial contact an error
cncheck,dmp		!	Enable program controlled contact splitting for distributed memory parallel run
dmpoption,emat,no             ! Don't combine emat file for DANSYS
dmpoption,esav,no             ! Don't combine esav file for DANSYS
nldiag,cont,iter           ! print out contact info each equilibrium iteration
rescontrol,,none                 ! Do not keep any restart files
/com,****************************************************
/com,******************* SOLVE FOR LS 1 OF 1 ****************
esel,s,type,,2
nsle
sfe,all,1,pres,1,0.
sfe,all,2,pres,1,0.
sfe,all,3,pres,1,1.
nsel,all
esel,all
/nopr
/gopr
nsub,1,1,1
time,1.
outres,erase
outres,all,none
outres,nsol,all,
outres,rsol,all
outres,eangl,all
outres,etmp,all
outres,veng,all
outres,strs,all,
outres,epel,all,
outres,eppl,all,
outres,cont,all,
! *********** WB SOLVE COMMAND ***********
! check interactive state
*get,ANSINTER_,active,,int
*if,ANSINTER_,ne,0,then
/eof
*endif
solve
/com *************** Write FE CONNECTORS ********* 
CEWRITE,file,ce,,INTE
/com,****************************************************
/com,*************** FINISHED SOLVE FOR LS 1 *************
fini
*get,_wallasol,active,,time,wall
/nopr
*get,_numnode,node,0,count
*get,_numelem,elem,0,count
*get, _MAXELEMNUM, elem, 0, NUM, MAX
*get, _MAXNODENUM, node, 0, NUM, MAX,,,INTERNAL
*get, _MAXELEMTYPE, etyp, 0, NUM, MAX
*get, _MAXREALCONST, rcon, 0, NUM, MAX
*get,_NSOLTHREADS,active,0,ntfs
*get,_NSOLPROCESSES,active,0,npfs
/gopr
/post1
xmlo,ENCODING,ISO-8859-1
xmlo,parm
/xml,parm,xml
fini
/gopr
*get,_walldone,active,,time,wall
_preptime=(_wallbsol-_wallstrt)*3600
_solvtime=(_wallasol-_wallbsol)*3600
_posttime=(_walldone-_wallasol)*3600
_totaltim=(_walldone-_wallstrt)*3600
*get,_dlbratio,active,0,solu,dlbr
*get,_combtime,active,0,solu,comb
*get,_ssmode,active,0,solu,ssmm
*get,_ndofs,active,0,solu,ndof
*get,_sol_end_time,active,0,set,time
*if,_sol_end_time,eq,1.000000,then
/fclean				!clean distributed files
*endif
/com,--- Total number of nodes = %_numnode%
/com,--- Total number of elements = %_numelem%
/com,--- Element load balance ratio = %_dlbratio%
/com,--- Time to combine distributed files = %_combtime%
/com,--- Sparse memory mode = %_ssmode%
/com,--- Number of DOF = %_ndofs%
/wb,file,end               ! done with WB generated input
